Circuit: * C:\Users\Badr\Documents\prt-ge-s2-2015-svn\trunk\Board\_01_Documents_Projet\04_Simulations\USB_Fault_LED\Schematic.asc

Direct Newton iteration for .op point succeeded.

Date: Sun May 03 12:27:56 2015
Total elapsed time: 0.057 seconds.

tnom = 27
temp = 27
method = modified trap
totiter = 2149
traniter = 2140
tranpoints = 1071
accept = 1066
rejected = 5
matrix size = 11
fillins = 0
solver = Normal
Matrix Compiler1: off  [0.1]/0.2/0.2
Matrix Compiler2: off  [0.1]/0.2/0.2


